
**** 01/17/17 13:10:30 ******* PSpice Lite (March 2016) ******* ID# 10813 ****

 ** Profile: "SCHEMATIC1-test"  [ c:\users\radra\box sync\senior fall 2016\ese 440\circuit simulation 1\laser sim1-PSpiceFiles\SCHEMA


 ****     CIRCUIT DESCRIPTION


******************************************************************************




** Creating circuit file "test.cir" 
** WARNING: THIS AUTOMATICALLY GENERATED FILE MAY BE OVERWRITTEN BY SUBSEQUENT SIMULATIONS

*Libraries: 
* Profile Libraries :
* Local Libraries :
* From [PSPICE NETLIST] section of C:\Users\radra\AppData\Roaming\SPB_Data\cdssetup\OrCAD_PSpice\17.2.0\PSpice.ini file:
.lib "nomd.lib" 

*Analysis directives: 
.DC LIN V_Arduino1 0 5 .1 
.OPTIONS ADVCONV
.PROBE64 V(alias(*)) I(alias(*)) W(alias(*)) D(alias(*)) NOISE(alias(*)) 
.INC "..\SCHEMATIC1.net" 



**** INCLUDING SCHEMATIC1.net ****
* source LASER SIM1
D_D5         N08249 0 Dbreak 
E_U1         N08201 0 VALUE {LIMIT(V(N08143,N08205)*1E6,-15V,+15V)}
V_V4         N08113 0 5
R_R4         N08249 N08205  1 TC=0,0 
V_V3         N08143 0 0Vdc
D_D6         N08843 0 Dbreak 
V_V6         N08707 0 12
V_Arduino         N08737 0 0Vdc
X_M6         N08707 N08737 N08843 RFP30N06LE/HA
X_M7         N08113 N08201 N08205 RFP30N06LE/HA
V_V7         N09475 0 12
D_D7         N09545 0 Dbreak 
X_M8         N09475 N09794 N09545 RFP30N06LE/HA
V_Arduino1         N09525 0 0Vdc
X_M9         N09475 N09525 N09794 RFP30N06LE/HA
X_M10         N09794 N09794 0 RFP30N06LE/HA

**** RESUMING test.cir ****
.END

ERROR -- EVALUATION VERSION analog Node Limit (75 Nodes) Exceeded!




ABORTING SIMULATION
**** 01/17/17 13:10:30 ******* PSpice Lite (March 2016) ******* ID# 10813 ****

 ** Profile: "SCHEMATIC1-test"  [ c:\users\radra\box sync\senior fall 2016\ese 440\circuit simulation 1\laser sim1-PSpiceFiles\SCHEMA


 ****     JOB STATISTICS SUMMARY


******************************************************************************



Node counts:
  Top level (NUNODS)                =          12
  External (NCNODS)                 =         113
  Total (NUMNOD)                    =         113

Total device count (NUMEL)          =         196
  Capacitors (C)                    =          15
  Diodes (D)                        =          28
  VCVS (E)                          =          31
  Current Sources (I)               =           5
  Inductors (L)                     =          15
  MosFETs (M)                       =          10
  Resistors (R)                     =          41
  VSwitches (S)                     =          20
  Voltage Sources (V)               =          16

Number of subcircuits (X)           =           5

Analysis statistics:
  No. total time points (NUMTTP)    =           0
  No. rejected time points (NUMRTP) =           0
  No. iterations (NUMNIT)           =           0

Load Threads                        =           1

Runtime statistics:                       Seconds      Iterations
  Readin                            =         .03
  General setup                     =        0.00
  CMI setup                     =        0.00
  Setup                             =        0.00
  DC sweep                          =        0.00               0
  Bias point                        =        0.00               0
  AC and noise                      =        0.00               0
  Total transient analysis          =        0.00
  Output                            =        0.00
  Overhead                          =         .02
  Total job time                    =         .03
