
**** 11/02/16 07:33:34 ******* PSpice Lite (March 2016) ******* ID# 10813 ****

 ** Profile: "SCHEMATIC1-test3"  [ c:\users\radra\box sync\senior fall 2016\ese 440\circuit simulation 1\test-PSpiceFiles\SCHEMATIC1\


 ****     CIRCUIT DESCRIPTION


******************************************************************************




** Creating circuit file "test3.cir" 
** WARNING: THIS AUTOMATICALLY GENERATED FILE MAY BE OVERWRITTEN BY SUBSEQUENT SIMULATIONS

*Libraries: 
* Profile Libraries :
* Local Libraries :
.LIB "../../../test-pspicefiles/test.lib" 
* From [PSPICE NETLIST] section of C:\Users\radra\AppData\Roaming\SPB_Data\cdssetup\OrCAD_PSpice\17.2.0\PSpice.ini file:
.lib "nomd.lib" 

*Analysis directives: 
.DC LIN V2 0 5 0.1 
.OPTIONS ADVCONV
.PROBE64 V(alias(*)) I(alias(*)) W(alias(*)) D(alias(*)) NOISE(alias(*)) 
.INC "..\SCHEMATIC1.net" 



**** INCLUDING SCHEMATIC1.net ****
* source TEST
V_V1         N03452 0 12
X_M3         N11102 N12087 N09256 RFP30N06LE/HA
R_R2         0 N09256  1 TC=0,0 
X_U1         N05906 N09256 N03452 0 N12087 uA741
D_D1         N03452 N11102 Dbreak 
V_V3         N05906 0  
+PULSE 0 3 10n 10n 10ns 50 0.020

**** RESUMING test3.cir ****
.END

ERROR(ORPSIM-15090): DC device V2 is undefined
