
**** 11/08/16 11:05:38 ******* PSpice Lite (March 2016) ******* ID# 10813 ****

 ** Profile: "SCHEMATIC1-test3"  [ c:\users\radra\box sync\senior fall 2016\ese 440\circuit simulation 1\test-pspicefiles\schematic1\


 ****     CIRCUIT DESCRIPTION


******************************************************************************




** Creating circuit file "test3.cir" 
** WARNING: THIS AUTOMATICALLY GENERATED FILE MAY BE OVERWRITTEN BY SUBSEQUENT SIMULATIONS

*Libraries: 
* Profile Libraries :
* Local Libraries :
.LIB "../../../test-pspicefiles/test.lib" 
* From [PSPICE NETLIST] section of C:\Users\radra\AppData\Roaming\SPB_Data\cdssetup\OrCAD_PSpice\17.2.0\PSpice.ini file:
.lib "nomd.lib" 

*Analysis directives: 
.DC LIN V_V2 0 6 0.1 
.OPTIONS ADVCONV
.PROBE64 V(alias(*)) I(alias(*)) W(alias(*)) D(alias(*)) NOISE(alias(*)) 
.INC "..\SCHEMATIC1.net" 



**** INCLUDING SCHEMATIC1.net ****
* source TEST
V_V1         N03452 0 12
X_M3         N03452 N12087 N15132 RFP30N06LE/HA
R_R2         0 N11007  1 TC=0,0 
X_U1A         N05906 N11007 N03452 0 N12087 LM124
D_D2         N15132 N11007 Dbreak 
V_V2         N05906 0 12

**** RESUMING test3.cir ****
.END

**** 11/08/16 11:05:38 ******* PSpice Lite (March 2016) ******* ID# 10813 ****

 ** Profile: "SCHEMATIC1-test3"  [ c:\users\radra\box sync\senior fall 2016\ese 440\circuit simulation 1\test-pspicefiles\schematic1\


 ****     Diode MODEL PARAMETERS


******************************************************************************




               Dbreak          X_M3.DBDMOD     X_M3.DBKMOD     X_M3.DESD1MOD   
          IS   10.000000E-15  380.000000E-15   10.000000E-15   10.000000E-15 
          BV                                                   13.54         
          RS     .34             .0112           .182          45.5          
          TT                   38.400000E-09                                 
         CJO  100.000000E-15    1.050000E-09                                 
        TRS1                    1.610000E-03    7.500000E-03                 
        TRS2                    6.080000E-06  -40.000000E-06                 


               X_M3.DESD2MOD   X_M3.DPLCAPMOD  X_U1A.dx        X_U1A.dy        
          IS   10.000000E-15    1.000000E-30  800.000000E-18  800.000000E-18 
           N                   10                                            
          BV   11.46                                                         
          RS                                    1               1.000000E-03 
         CJO                  591.000000E-12                   10.000000E-12 
        TBV1 -757.600000E-06                                                 
        TBV2   -3.000000E-06                                                 


**** 11/08/16 11:05:38 ******* PSpice Lite (March 2016) ******* ID# 10813 ****

 ** Profile: "SCHEMATIC1-test3"  [ c:\users\radra\box sync\senior fall 2016\ese 440\circuit simulation 1\test-pspicefiles\schematic1\


 ****     BJT MODEL PARAMETERS


******************************************************************************




               X_U1A.qx        
               PNP             
       LEVEL    1            
          IS  800.000000E-18 
          BF  166.7          
          NF    1            
          BR    1            
          NR    1            
         ISS    0            
          RE    0            
          RC    0            
         CJE    0            
         VJE     .75         
         CJC    0            
         VJC     .75         
         MJC     .33         
        XCJC    1            
         CJS    0            
         VJS     .75         
          KF    0            
          AF    1            
          CN    2.2          
           D     .52         


**** 11/08/16 11:05:38 ******* PSpice Lite (March 2016) ******* ID# 10813 ****

 ** Profile: "SCHEMATIC1-test3"  [ c:\users\radra\box sync\senior fall 2016\ese 440\circuit simulation 1\test-pspicefiles\schematic1\


 ****     MOSFET MODEL PARAMETERS


******************************************************************************




               X_M3.MOSMOD     
               NMOS            
       LEVEL    1            
           L    1.000000E-06 
           W    1.000000E-06 
         VTO    1.94         
          KP  139.2          
       GAMMA    0            
         PHI     .6          
      LAMBDA    0            
          IS    1.000000E-30 
          JS    0            
           N   10            
          PB     .8          
        PBSW     .8          
          CJ    0            
        CJSW    0            
        CGSO    0            
        CGDO    0            
        CGBO    0            
         TOX    1            
          XJ    0            
       UCRIT   10.000000E+03 
      DIOMOD    1            
         VFB    0            
        LETA    0            
        WETA    0            
          U0    0            
        TEMP    0            
         VDD    5            
       XPART    0            


**** 11/08/16 11:05:38 ******* PSpice Lite (March 2016) ******* ID# 10813 ****

 ** Profile: "SCHEMATIC1-test3"  [ c:\users\radra\box sync\senior fall 2016\ese 440\circuit simulation 1\test-pspicefiles\schematic1\


 ****     Resistor MODEL PARAMETERS


******************************************************************************




               X_M3.RBKMOD     X_M3.RDSMOD     X_M3.RSLVCMOD   X_M3.RVTOMOD    
           R    1               1               1               1            
         TC1    1.070000E-03    5.380000E-03    1.750000E-03   -2.150000E-03 
         TC2 -303.000000E-09   16.400000E-06    3.900000E-06   -5.430000E-06 


**** 11/08/16 11:05:38 ******* PSpice Lite (March 2016) ******* ID# 10813 ****

 ** Profile: "SCHEMATIC1-test3"  [ c:\users\radra\box sync\senior fall 2016\ese 440\circuit simulation 1\test-pspicefiles\schematic1\


 ****     Voltage Controlled Switch MODEL PARAMETERS


******************************************************************************




               X_M3.S1AMOD     X_M3.S1BMOD     X_M3.S2AMOD     X_M3.S2BMOD     
         RON   10.000000E-06   10.000000E-06   10.000000E-06   10.000000E-06 
        ROFF     .1              .1              .1              .1          
         VON   -4.05           -1.5            -2.2             2.8          
        VOFF   -1.5            -4.05            2.8            -2.2          



          JOB CONCLUDED

**** 11/08/16 11:05:38 ******* PSpice Lite (March 2016) ******* ID# 10813 ****

 ** Profile: "SCHEMATIC1-test3"  [ c:\users\radra\box sync\senior fall 2016\ese 440\circuit simulation 1\test-pspicefiles\schematic1\


 ****     JOB STATISTICS SUMMARY


******************************************************************************



  Total job time (using Solver 1)   =         .03
