
**** 11/09/16 21:04:44 ******* PSpice Lite (March 2016) ******* ID# 10813 ****

 ** Profile: "SCHEMATIC1-test"  [ C:\USERS\RADRA\BOX SYNC\SENIOR FALL 2016\ESE 440\Circuit simulation 1\Arduino_DAC_Test-PSpiceFiles\


 ****     CIRCUIT DESCRIPTION


******************************************************************************




** Creating circuit file "test.cir" 
** WARNING: THIS AUTOMATICALLY GENERATED FILE MAY BE OVERWRITTEN BY SUBSEQUENT SIMULATIONS

*Libraries: 
* Profile Libraries :
* Local Libraries :
* From [PSPICE NETLIST] section of C:\Users\radra\AppData\Roaming\SPB_Data\cdssetup\OrCAD_PSpice\17.2.0\PSpice.ini file:
.lib "nomd.lib" 

*Analysis directives: 
.TRAN  0 100ms 0 
.OPTIONS ADVCONV
.PROBE64 V(alias(*)) I(alias(*)) W(alias(*)) D(alias(*)) NOISE(alias(*)) 
.INC "..\SCHEMATIC1.net" 



**** INCLUDING SCHEMATIC1.net ****
* source ARDUINO_DAC_TEST
R_R1         N00612 N00067  10k TC=0,0 
C_C1         0 N00067  100n  TC=0,0 
V_V1         N00158 0  
+PULSE 0 5 1ns 1ns 1ns 0.0000192 0.000032
M_M1         N00158 N00733 N00612 N00612 MbreakN           
V_V2         N00733 M_UN0001  
+PULSE 0 5 1ns 1ns 1ns 50ms 100ms

**** RESUMING test.cir ****
.END

ERROR(ORPSIM-15142): Node N00733 is floating

ERROR(ORPSIM-15142): Node M_UN0001 is floating
