
**** 10/29/16 13:50:06 ******* PSpice Lite (March 2016) ******* ID# 10813 ****

 ** Profile: "SCHEMATIC1-test"  [ c:\users\radra\box sync\senior fall 2016\ese 440\circuit simulation 1\test-pspicefiles\schematic1\t


 ****     CIRCUIT DESCRIPTION


******************************************************************************




** Creating circuit file "test.cir" 
** WARNING: THIS AUTOMATICALLY GENERATED FILE MAY BE OVERWRITTEN BY SUBSEQUENT SIMULATIONS

*Libraries: 
* Profile Libraries :
* Local Libraries :
.LIB "../../../test-pspicefiles/test.lib" 
* From [PSPICE NETLIST] section of C:\Users\radra\AppData\Roaming\SPB_Data\cdssetup\OrCAD_PSpice\17.2.0\PSpice.ini file:
.lib "nomd.lib" 

*Analysis directives: 
.DC LIN V3 0 5 .1 
.OPTIONS ADVCONV
.PROBE64 V(alias(*)) I(alias(*)) W(alias(*)) D(alias(*)) NOISE(alias(*)) 
.INC "..\SCHEMATIC1.net" 



**** INCLUDING SCHEMATIC1.net ****
* source TEST
X_M1         N05747 N06220 0 RFP30N06LE/HA
V_V1         N03452 0 5
V_V2         N05906 0 0
X_M2         N03452 N05906 N06220 RFP30N06LE/HA
D_D3         N03452 N05747 Dbreak 
R_R2         0 N06220  1000k TC=0,0 
X_M3         N07081 N05906 0 RFP30N06LE/HA
D_D4         N03452 N07081 Dbreak 
C_C1         0 N07081  1n  TC=0,0 
R_R3         N07081 N03452  100k TC=0,0 

**** RESUMING test.cir ****
.END

ERROR(ORPSIM-15090): DC device V3 is undefined
